Version 4
SHEET 1 880 680
WIRE 64 96 0 96
WIRE 208 96 144 96
WIRE 320 96 288 96
WIRE 0 144 0 96
WIRE 0 256 0 224
WIRE 240 256 240 176
WIRE 240 256 0 256
WIRE 0 272 0 256
FLAG 0 272 0
FLAG 320 96 out
SYMBOL SLV 0 144 R0
SYMATTR InstName V1
SYMBOL SLC 144 96 R90
WINDOW 0 -16 40 VBottom 2
WINDOW 3 16 40 VTop 2
SYMATTR InstName C1
SYMATTR Value {C_s}
SYMBOL SLM_noise 288 80 R0
WINDOW 38 -31 53 Left 2
WINDOW 3 -28 73 Left 2
SYMATTR InstName U1
SYMATTR SpiceModel NM18_noise
SYMATTR Value ID={ID} IG={IG} W={W} L={L} M={M}
TEXT 256 192 Left 2 !.param ID=5u IG=0 W=50u L=180n C_s=5p M = 2
