Version 4
SHEET 1 880 680
WIRE 64 80 0 80
WIRE 192 80 144 80
WIRE 400 80 272 80
WIRE 0 128 0 80
WIRE 0 224 0 208
WIRE 224 224 224 160
FLAG 0 224 0
FLAG 224 224 0
FLAG 400 80 out
SYMBOL SLV 0 128 R0
SYMATTR InstName V1
SYMBOL SLC 144 80 R90
WINDOW 0 -16 40 VBottom 2
WINDOW 3 16 40 VTop 2
SYMATTR InstName C1
SYMATTR Value {C_s}
SYMBOL SLM_noise 272 64 R0
WINDOW 38 -32 53 Left 2
WINDOW 3 -33 78 Left 2
SYMATTR InstName U1
SYMATTR SpiceModel NM18_noise
TEXT 64 272 Left 2 !.param C_s=5p IG=0 ID=6.4m W=50u L=180n M=16
