Version 4
SHEET 1 1636 884
WIRE 272 -224 0 -224
WIRE 864 -224 352 -224
WIRE 864 -48 864 -224
WIRE 864 -48 640 -48
WIRE 1136 -48 864 -48
WIRE 1296 -48 1216 -48
WIRE 1376 -48 1296 -48
WIRE 1552 -48 1456 -48
WIRE 1552 -16 1552 -48
WIRE 160 0 96 0
WIRE 592 0 240 0
WIRE 672 0 640 0
WIRE 96 16 96 0
WIRE 0 64 0 -224
WIRE 112 64 0 64
WIRE 160 80 160 0
WIRE 240 80 240 0
WIRE 640 80 640 32
WIRE 656 80 640 80
WIRE 672 80 672 0
WIRE 672 80 656 80
WIRE -528 128 -768 128
WIRE -320 128 -384 128
WIRE -160 128 -240 128
WIRE 0 128 0 64
WIRE 0 128 -80 128
WIRE 112 128 112 64
WIRE 416 128 288 128
WIRE -768 160 -768 128
WIRE -528 208 -560 208
WIRE -352 208 -384 208
WIRE 416 240 416 128
WIRE 416 240 -32 240
WIRE 656 240 656 80
WIRE 880 240 656 240
WIRE -768 256 -768 240
WIRE -560 256 -560 208
WIRE -352 256 -352 208
WIRE -32 256 -32 240
WIRE 880 256 880 240
FLAG 96 16 0
FLAG 880 256 0
FLAG -32 256 0
FLAG -352 256 0
FLAG -560 256 0
FLAG -768 256 0
FLAG 1552 -16 0
FLAG 1296 -48 out
SYMBOL SLXMD 112 128 R0
WINDOW 0 146 -88 Left 2
WINDOW 38 152 -62 Left 2
SYMATTR InstName U1
SYMATTR SpiceModel CMOS18ND
SYMATTR Value W={W_DP} L={L_DP} ID={ID_DP}
SYMBOL SLXMPN 592 0 R0
WINDOW 38 61 -12 Left 2
WINDOW 3 99 60 Left 2
SYMATTR SpiceModel CMOS18PN
SYMATTR InstName U2
SYMBOL SLE -448 112 R0
SYMATTR InstName E1
SYMATTR Value {L_A}
SYMBOL SLV -768 160 R0
SYMATTR InstName V1
SYMATTR Value value={Vin}
SYMBOL SLR 1216 -48 R90
WINDOW 0 -8 40 VBottom 2
WINDOW 3 8 40 VTop 2
SYMATTR InstName R1
SYMATTR Value {R1}
SYMBOL SLR 1456 -48 R90
WINDOW 0 -8 40 VBottom 2
WINDOW 3 8 40 VTop 2
SYMATTR InstName R2
SYMATTR Value {R2}
SYMBOL SLC 272 -224 R270
WINDOW 0 16 40 VTop 2
WINDOW 3 -16 40 VBottom 2
SYMATTR InstName C1
SYMATTR Value {C_F}
SYMBOL SLC -240 128 R90
WINDOW 0 -16 40 VBottom 2
WINDOW 3 16 40 VTop 2
SYMATTR InstName C2
SYMATTR Value {C_A}
SYMBOL SLR_r -80 128 R90
WINDOW 0 -8 40 VBottom 2
WINDOW 3 8 40 VTop 2
WINDOW 123 29 40 VTop 2
SYMATTR InstName Rphz
SYMATTR Value value={Rphz}
RECTANGLE Normal 800 -96 32 352 2
