Version 4
SHEET 1 1176 680
WIRE 352 -32 304 -32
WIRE 448 -32 432 -32
WIRE 480 -32 448 -32
WIRE 304 -16 304 -32
WIRE 256 32 176 32
WIRE 176 64 176 32
WIRE -272 112 -400 112
WIRE -96 112 -128 112
WIRE 16 112 -16 112
WIRE 48 112 16 112
WIRE -400 128 -400 112
WIRE 16 256 16 112
WIRE 80 256 16 256
WIRE 352 256 352 -32
WIRE 352 256 160 256
FLAG -400 208 0
FLAG -272 192 0
FLAG -128 192 0
FLAG 224 112 0
FLAG 96 64 0
FLAG 560 -32 0
FLAG 448 -32 out
FLAG 304 64 0
FLAG 304 32 0
SYMBOL SLXMD 48 112 R0
WINDOW 0 37 -139 Left 2
WINDOW 38 36 -115 Left 2
WINDOW 3 95 45 Center 2
SYMATTR InstName U1
SYMATTR SpiceModel CMOS18ND
SYMBOL SLE -192 96 R0
SYMATTR InstName E1
SYMATTR Value {L_A}
SYMBOL SLC -16 112 R90
WINDOW 0 -16 40 VBottom 2
WINDOW 3 16 40 VTop 2
SYMATTR InstName C1
SYMATTR Value {C_A}
SYMBOL SLC 160 256 R90
WINDOW 0 -16 40 VBottom 2
WINDOW 3 16 40 VTop 2
SYMATTR InstName C2
SYMATTR Value {C_F}
SYMBOL SLXMPN 256 32 R0
WINDOW 0 110 -3 Left 2
WINDOW 38 110 20 Left 2
WINDOW 3 111 44 Left 2
SYMATTR InstName U3
SYMATTR SpiceModel CMOS18PN
SYMBOL SLR 432 -32 R90
WINDOW 0 -8 40 VBottom 2
WINDOW 3 8 40 VTop 2
SYMATTR InstName R1
SYMATTR Value {R_C}
SYMBOL SLR 560 -32 R90
WINDOW 0 -8 40 VBottom 2
WINDOW 3 8 40 VTop 2
SYMATTR InstName R2
SYMATTR Value {R_C}
SYMBOL SLV -400 128 R0
SYMATTR InstName V2
SYMATTR Value value={Vin}
