Version 4
SHEET 1 880 680
WIRE 256 32 112 32
WIRE 288 32 256 32
WIRE 288 48 288 32
WIRE -32 64 -96 64
WIRE 32 64 -32 64
WIRE 112 64 112 32
WIRE 32 112 32 64
WIRE 64 112 32 112
WIRE 144 112 112 112
WIRE 144 144 144 112
WIRE 288 144 288 128
FLAG 112 144 0
FLAG 144 144 0
FLAG 288 144 0
FLAG -96 144 0
FLAG 256 32 out
FLAG -32 144 0
FLAG -96 64 in
SYMBOL SLR 288 48 R0
SYMATTR InstName R1
SYMATTR Value {R_L}
SYMBOL SLXM 64 112 R0
WINDOW 0 66 -47 Left 2
WINDOW 38 66 -35 Left 2
WINDOW 3 66 -22 Left 2
SYMATTR InstName U1
SYMATTR SpiceModel CMOS18N
SYMBOL SLI -96 144 R180
WINDOW 0 41 24 Left 2
WINDOW 3 41 8 Left 2
WINDOW 123 41 -19 Left 2
WINDOW 39 41 -1 Left 2
WINDOW 40 41 -10 Left 2
SYMATTR InstName I1
SYMBOL SLR -32 64 R0
SYMATTR InstName R2
SYMATTR Value {R_s}
TEXT 56 168 Left 2 !.param W=600u L=180n ID=6.4m R_L=100 R_s=10G
TEXT 56 184 Left 2 !.include C18.lib
