Version 4
SHEET 1 956 680
WIRE 320 -96 32 -96
WIRE 720 -96 320 -96
WIRE 32 -80 32 -96
WIRE 320 -80 320 -96
WIRE 720 -16 720 -96
WIRE 720 -16 576 -16
WIRE 880 -16 720 -16
WIRE 320 16 320 0
WIRE 320 16 256 16
WIRE 464 16 320 16
WIRE 32 32 32 0
WIRE 320 48 320 16
WIRE 576 48 576 -16
WIRE 48 96 32 96
WIRE 176 96 176 16
WIRE 176 96 128 96
WIRE 256 96 176 96
WIRE 464 96 464 16
WIRE 512 96 464 96
WIRE 512 128 512 96
WIRE 528 128 512 128
WIRE 32 144 32 96
WIRE 880 144 880 -16
WIRE 576 192 576 144
WIRE 624 192 576 192
WIRE 672 192 624 192
WIRE 816 192 752 192
WIRE 576 208 576 192
WIRE 32 256 32 224
WIRE 880 256 880 240
WIRE 320 304 320 144
WIRE 576 304 576 272
FLAG 32 256 0
FLAG 576 304 0
FLAG 32 32 0
FLAG 880 336 0
FLAG 320 304 0
FLAG 624 272 0
SYMBOL voltage 32 128 R0
WINDOW 123 0 0 Left 0
WINDOW 39 0 0 Left 0
SYMATTR InstName V1
SYMATTR Value PWL(0.99 0 1 2 1.1 2 1.11 0)
SYMBOL res 656 208 R270
WINDOW 0 32 56 VTop 2
WINDOW 3 0 56 VBottom 2
SYMATTR InstName R1
SYMATTR Value 1k
SYMBOL cap 592 272 R180
WINDOW 0 24 56 Left 2
WINDOW 3 24 8 Left 2
SYMATTR InstName C1
SYMATTR Value 100n
SYMBOL voltage 32 -96 R0
WINDOW 123 0 0 Left 0
WINDOW 39 0 0 Left 0
SYMATTR InstName V2
SYMATTR Value 5
SYMBOL npn 816 144 R0
SYMATTR InstName Q2
SYMATTR Value 2N3904
SYMBOL res 864 240 R0
SYMATTR InstName R2
SYMATTR Value 100k
SYMBOL npn 256 48 R0
SYMATTR InstName Q3
SYMBOL res 304 -96 R0
SYMATTR InstName R3
SYMATTR Value 2k
SYMBOL res 272 0 R90
WINDOW 0 0 56 VBottom 2
WINDOW 3 32 56 VTop 2
SYMATTR InstName R4
SYMATTR Value 50k
SYMBOL res 144 80 R90
WINDOW 0 0 56 VBottom 2
WINDOW 3 32 56 VTop 2
SYMATTR InstName R5
SYMATTR Value 10k
SYMBOL res 608 176 R0
SYMATTR InstName R6
SYMATTR Value 100k
SYMBOL pmos 528 48 R0
SYMATTR InstName M1
TEXT -2 280 Left 2 !.tran 2
