Version 4
SHEET 1 880 680
WIRE -112 80 -144 80
WIRE 160 80 112 80
WIRE 192 80 160 80
WIRE 288 80 272 80
WIRE 304 80 288 80
FLAG -144 160 0
FLAG 224 160 0
FLAG 288 80 out
FLAG 32 160 0
FLAG -112 160 0
FLAG 160 160 0
SYMBOL SLiCAP\\SLM_noise 272 64 R0
SYMATTR InstName U1
SYMATTR SpiceModel NM18_noise
SYMBOL SLiCAP\\SLC 112 80 R90
WINDOW 0 -16 40 VBottom 2
WINDOW 3 16 40 VTop 2
SYMATTR InstName C1
SYMATTR Value {C_A}
SYMBOL SLiCAP\\SLV -144 80 M0
SYMATTR InstName V1
SYMBOL SLiCAP\\SLE -32 64 R0
SYMATTR InstName E1
SYMATTR Value {L_A}
SYMBOL SLiCAP\\SLC 160 160 R180
WINDOW 0 8 67 Left 2
WINDOW 3 8 55 Left 2
SYMATTR InstName C2
SYMATTR Value {C_f}
