Version 4
SHEET 1 1704 680
WIRE 32 -176 -288 -176
WIRE 304 -176 32 -176
WIRE 976 -176 784 -176
WIRE 1104 -176 976 -176
WIRE 1376 -176 1104 -176
WIRE 1488 -176 1376 -176
WIRE -288 -128 -288 -176
WIRE 32 -128 32 -176
WIRE 784 -128 784 -176
WIRE 1104 -128 1104 -176
WIRE 1376 -128 1376 -176
WIRE -288 -16 -288 -48
WIRE 784 -16 784 -48
WIRE 32 64 32 -48
WIRE 176 64 32 64
WIRE 32 80 32 64
WIRE 304 80 304 -176
WIRE 1104 80 1104 -48
WIRE 1376 80 1376 -48
WIRE 32 128 -144 128
WIRE 416 128 304 128
WIRE 976 128 976 -176
WIRE 1104 128 976 128
WIRE 1488 128 1488 -176
WIRE 1488 128 1376 128
WIRE 176 160 176 64
WIRE 176 160 80 160
WIRE 256 160 176 160
WIRE 1232 160 1152 160
WIRE 1328 160 1232 160
WIRE -144 192 -144 128
WIRE 416 192 416 128
WIRE 1104 208 1104 176
WIRE 1232 208 1232 160
WIRE 1232 208 1104 208
WIRE -448 240 -448 208
WIRE 32 240 32 176
WIRE 304 240 304 176
WIRE 1104 240 1104 208
WIRE -448 352 -448 320
WIRE 32 368 32 320
WIRE 304 368 304 320
WIRE 1104 368 1104 320
WIRE 1376 368 1376 176
FLAG 32 368 0
FLAG -288 -16 0
FLAG -448 208 substrateGround
FLAG -448 352 0
FLAG 304 368 0
FLAG 416 192 substrateGround
FLAG -144 192 substrateGround
FLAG 1104 368 0
FLAG 784 -16 0
FLAG 1376 368 0
DATAFLAG -48 0 "Id(M1)"
DATAFLAG 384 0 "Id(M2)"
DATAFLAG 1184 32 "Id(M5)"
DATAFLAG 1584 32 "Id(M6)"
SYMBOL nmos4 80 80 M0
SYMATTR InstName M1
SYMATTR Value C18nmos
SYMATTR Value2 l=360n w=35u m=4
SYMBOL res 16 224 R0
SYMATTR InstName R1
SYMATTR Value 100
SYMBOL res 16 -144 R0
SYMATTR InstName R2
SYMATTR Value 3.62k
SYMBOL voltage -288 -144 R0
WINDOW 123 0 0 Left 0
WINDOW 39 0 0 Left 0
SYMATTR InstName V1
SYMATTR Value 1.8
SYMBOL voltage -448 336 R180
WINDOW 123 0 0 Left 0
WINDOW 39 0 0 Left 0
SYMATTR InstName V2
SYMATTR Value 20m
SYMBOL nmos4 256 80 R0
SYMATTR InstName M2
SYMATTR Value C18nmos
SYMATTR Value2 l=360n w=35u m=80
SYMBOL res 288 224 R0
SYMATTR InstName R3
SYMATTR Value 5
SYMBOL res 1088 224 R0
SYMATTR InstName R4
SYMATTR Value 3.62k
SYMBOL res 1088 -144 R0
SYMATTR InstName R5
SYMATTR Value 100
SYMBOL voltage 784 -144 R0
WINDOW 123 0 0 Left 0
WINDOW 39 0 0 Left 0
SYMATTR InstName V3
SYMATTR Value 1.8
SYMBOL res 1360 -144 R0
SYMATTR InstName R6
SYMATTR Value 10
SYMBOL pmos4 1152 80 M0
SYMATTR InstName M5
SYMATTR Value C18pmos
SYMATTR Value2 l=180n w=40u m=4
SYMBOL pmos4 1328 80 R0
SYMATTR InstName M6
SYMATTR Value C18pmos
SYMATTR Value2 l=180n w=40u m=40
TEXT -224 -272 Left 2 !.op
TEXT -224 -224 Left 2 !.lib 'E:\\Universiteit\\Master\\7 Q2 - 2021\\EE4109-Structured-Electronic-Design\\cir\\CMOS18TT.lib'
TEXT -224 -248 Left 2 !.lib 'C:\\Program Files\\LTC\\LTspiceXVII\\lib\\cmp\\log018.l' TT
TEXT 16 472 Left 2 ;Sinking current source
TEXT 1128 464 Left 2 ;Sourcing current source
TEXT -224 -288 Left 2 !.op
