Version 4
SHEET 1 3040 680
WIRE 1536 -768 1472 -768
WIRE 1680 -768 1616 -768
WIRE 1472 -624 1472 -768
WIRE 1472 -624 880 -624
WIRE 1536 -624 1472 -624
WIRE 1680 -624 1680 -768
WIRE 1680 -624 1600 -624
WIRE 2400 -624 1680 -624
WIRE 2032 -320 1952 -320
WIRE 2192 -320 2032 -320
WIRE 2192 -288 2192 -320
WIRE 1952 -192 1952 -320
WIRE 2192 -160 2192 -208
WIRE 2032 -144 2032 -320
WIRE 2032 -144 1952 -144
WIRE 1904 -112 1744 -112
WIRE 1744 -16 1744 -112
WIRE 512 32 368 32
WIRE 624 32 576 32
WIRE 880 32 880 -624
WIRE 880 32 704 32
WIRE 1952 32 1952 -96
WIRE 2400 32 2400 -624
WIRE 2400 32 1952 32
WIRE 2528 32 2400 32
WIRE 2640 32 2608 32
WIRE 2752 32 2704 32
WIRE 368 48 368 32
WIRE 320 64 144 64
WIRE 144 96 144 64
WIRE 1136 96 1040 96
WIRE 1552 96 1392 96
WIRE 1744 96 1744 64
WIRE 1744 96 1552 96
WIRE 320 112 256 112
WIRE 1552 112 1552 96
WIRE 1040 128 1040 96
WIRE 1744 128 1744 96
WIRE 2752 144 2752 32
WIRE 1952 192 1952 32
WIRE 144 224 144 176
WIRE 208 224 144 224
WIRE 256 224 256 112
WIRE 256 224 208 224
WIRE 368 224 368 128
WIRE 368 224 256 224
WIRE 1040 240 1040 208
WIRE 1552 240 1552 192
WIRE 2064 240 1952 240
WIRE 208 256 208 224
WIRE 1744 272 1744 208
WIRE 1904 272 1744 272
WIRE 1136 288 1136 96
WIRE 1392 288 1392 96
WIRE 2752 304 2752 224
WIRE 1264 336 1136 336
WIRE 1392 336 1264 336
WIRE 880 368 880 32
WIRE 1088 368 880 368
WIRE 1552 368 1440 368
WIRE 2352 384 2352 352
WIRE 1952 400 1952 288
WIRE 1136 432 1136 384
WIRE 1280 432 1136 432
WIRE 1392 432 1392 384
WIRE 1392 432 1280 432
WIRE 1280 480 1280 432
WIRE 1552 480 1552 368
WIRE 2352 496 2352 464
WIRE 1280 624 1280 560
WIRE 1552 624 1552 560
FLAG 208 256 0
FLAG 1280 624 0
FLAG 1040 240 0
FLAG 1552 624 0
FLAG 1552 240 0
FLAG 1952 400 0
FLAG 2192 -160 0
FLAG 2752 304 0
FLAG 2064 240 substrateGround
FLAG 1264 336 substrateGround
FLAG 2352 352 substrateGround
FLAG 2352 496 0
DATAFLAG 880 208 ""
DATAFLAG 1424 96 ""
DATAFLAG 2192 32 ""
DATAFLAG 2752 32 ""
DATAFLAG 1136 48 "Id(M1)"
DATAFLAG 1136 96 ""
DATAFLAG 1424 48 "Id(M2)"
DATAFLAG 1280 432 ""
DATAFLAG 1872 -240 "Id(M4)"
DATAFLAG 1872 352 "Id(M3)"
DATAFLAG 1168 544 "I(I1)"
SYMBOL voltage 144 80 R0
WINDOW 3 -305 92 Left 2
WINDOW 123 -305 120 Left 2
WINDOW 39 0 0 Left 0
SYMATTR Value SINE(0 {V_in} 30meg 0 0 0)
SYMATTR Value2 AC 1 0
SYMATTR InstName V1
SYMBOL e 368 32 R0
SYMATTR InstName E1
SYMATTR Value {L_A}
SYMBOL cap 576 16 R90
WINDOW 0 0 32 VBottom 2
WINDOW 3 32 32 VTop 2
SYMATTR InstName C1
SYMATTR Value {C_A}
SYMBOL res 720 16 R90
WINDOW 0 0 56 VBottom 2
WINDOW 3 32 56 VTop 2
SYMATTR InstName R1
SYMATTR Value {Rphz}
SYMBOL current 1280 480 R0
WINDOW 123 0 0 Left 0
WINDOW 39 0 0 Left 0
SYMATTR InstName I1
SYMATTR Value {ID_DP*2}
SYMBOL voltage 1040 112 R0
WINDOW 123 0 0 Left 0
WINDOW 39 0 0 Left 0
SYMATTR InstName V2
SYMATTR Value 900m
SYMBOL voltage 1552 464 R0
WINDOW 123 0 0 Left 0
WINDOW 39 0 0 Left 0
SYMATTR InstName V3
SYMATTR Value 900m
SYMBOL current 1552 192 R180
WINDOW 0 24 80 Left 2
WINDOW 3 24 0 Left 2
WINDOW 123 0 0 Left 0
WINDOW 39 0 0 Left 0
SYMATTR InstName I2
SYMATTR Value {ID_DP}
SYMBOL nmos4 1088 288 R0
SYMATTR InstName M1
SYMATTR Value C18nmos
SYMATTR Value2 l={L_DP} w={W_DP}
SYMBOL nmos4 1440 288 M0
SYMATTR InstName M2
SYMATTR Value C18nmos
SYMATTR Value2 l={L_DP} w={W_DP}
SYMBOL nmos4 1904 192 R0
SYMATTR InstName M3
SYMATTR Value C18nmos
SYMATTR Value2 l={L_N} w={W_N}
SYMBOL pmos4 1904 -192 R0
SYMATTR InstName M4
SYMATTR Value C18pmos
SYMATTR Value2 l={L_P} w={W_P}
SYMBOL voltage 1744 -32 R0
WINDOW 0 24 96 Left 2
WINDOW 3 24 16 Left 2
WINDOW 123 0 0 Left 0
WINDOW 39 0 0 Left 0
SYMATTR InstName V4
SYMATTR Value 300m
SYMBOL voltage 1744 112 R0
WINDOW 0 24 96 Left 2
WINDOW 3 24 16 Left 2
WINDOW 123 0 0 Left 0
WINDOW 39 0 0 Left 0
SYMATTR InstName V5
SYMATTR Value 300m
SYMBOL voltage 2192 -304 R0
WINDOW 123 0 0 Left 0
WINDOW 39 0 0 Left 0
SYMATTR InstName V6
SYMATTR Value 1.8
SYMBOL cap 1600 -640 R90
WINDOW 0 0 32 VBottom 2
WINDOW 3 32 32 VTop 2
SYMATTR InstName C2
SYMATTR Value {C_F}
SYMBOL res 1632 -784 R90
WINDOW 0 0 56 VBottom 2
WINDOW 3 32 56 VTop 2
SYMATTR InstName R2
SYMATTR Value 500Meg
SYMBOL res 2624 16 R90
WINDOW 0 0 56 VBottom 2
WINDOW 3 32 56 VTop 2
SYMATTR InstName R3
SYMATTR Value {R_L}
SYMBOL cap 2704 16 R90
WINDOW 0 0 32 VBottom 2
WINDOW 3 32 32 VTop 2
SYMATTR InstName C3
SYMATTR Value 1u
SYMBOL res 2736 128 R0
SYMATTR InstName R4
SYMATTR Value {R_L}
SYMBOL voltage 2352 480 R180
WINDOW 123 0 0 Left 0
WINDOW 39 0 0 Left 0
SYMATTR InstName V7
SYMATTR Value 20m
TEXT 72 368 Left 2 !.param L_A=0.5 C_A=10e-12 C_F=5e-12 R_L=50
TEXT 72 392 Left 2 !.param Rphz=0.1
TEXT 72 416 Left 2 !.param L_DP=300n W_DP=800u ID_DP=3.6m
TEXT 72 440 Left 2 !.param L_N=180n L_P=180n W_N=100u W_P=350u
TEXT 72 496 Left 2 !.op
TEXT 72 608 Left 2 !.lib 'E:\\Universiteit\\Master\\7 Q2 - 2021\\EE4109-Structured-Electronic-Design\\cir\\CMOS18TT.lib'
TEXT 72 584 Left 2 !.lib 'C:\\Program Files\\LTC\\LTspiceXVII\\lib\\cmp\\log018.l' TT
TEXT 72 344 Left 2 !.param V_in=0.16
TEXT 72 512 Left 2 !;tran 800n
TEXT 72 528 Left 2 !.ac dec 20 1k 10G
