Version 4
SHEET 1 5536 1444
WIRE 2384 -768 2320 -768
WIRE 2496 -768 2464 -768
WIRE 2320 -624 2320 -768
WIRE 2320 -624 1328 -624
WIRE 2384 -624 2320 -624
WIRE 2496 -624 2496 -768
WIRE 2496 -624 2448 -624
WIRE 3424 -624 2496 -624
WIRE 1520 -528 1424 -528
WIRE 1824 -528 1728 -528
WIRE 1968 -528 1920 -528
WIRE 2240 -528 1968 -528
WIRE 2304 -528 2240 -528
WIRE 2400 -528 2304 -528
WIRE 2576 -528 2400 -528
WIRE 2640 -528 2576 -528
WIRE 2800 -528 2640 -528
WIRE 2864 -528 2800 -528
WIRE 3200 -528 2864 -528
WIRE 3280 -528 3200 -528
WIRE 3344 -528 3280 -528
WIRE 1520 -416 1520 -528
WIRE 1728 -416 1728 -528
WIRE 1968 -416 1968 -528
WIRE 2240 -416 2240 -528
WIRE 2576 -416 2576 -528
WIRE 2800 -416 2800 -528
WIRE 3200 -416 3200 -528
WIRE 1920 -368 1920 -528
WIRE 1968 -368 1920 -368
WIRE 2304 -368 2304 -528
WIRE 2304 -368 2240 -368
WIRE 2640 -368 2640 -528
WIRE 2640 -368 2576 -368
WIRE 2864 -368 2864 -528
WIRE 2864 -368 2800 -368
WIRE 3280 -368 3280 -528
WIRE 3280 -368 3200 -368
WIRE 2048 -336 2016 -336
WIRE 2096 -336 2048 -336
WIRE 2192 -336 2096 -336
WIRE 2528 -336 2480 -336
WIRE 2752 -336 2704 -336
WIRE 2928 -320 2800 -320
WIRE 3056 -320 2928 -320
WIRE 3152 -320 3152 -336
WIRE 3152 -320 3056 -320
WIRE 3344 -288 3344 -528
WIRE 1520 -256 1520 -336
WIRE 1728 -256 1728 -336
WIRE 1968 -256 1968 -320
WIRE 2048 -256 2048 -336
WIRE 2048 -256 1968 -256
WIRE 2480 -256 2480 -336
WIRE 2576 -256 2576 -320
WIRE 2576 -256 2480 -256
WIRE 2704 -256 2704 -336
WIRE 2704 -256 2576 -256
WIRE 1968 -192 1968 -256
WIRE 2096 -192 2096 -336
WIRE 2400 -192 2400 -528
WIRE 2576 -192 2576 -256
WIRE 2928 -192 2928 -320
WIRE 3056 -176 3056 -320
WIRE 3344 -160 3344 -208
WIRE 1424 -32 1424 -528
WIRE 1520 -32 1424 -32
WIRE 2240 -32 2240 -320
WIRE 2240 -32 1728 -32
WIRE 2800 -32 2240 -32
WIRE 2928 -32 2928 -112
WIRE 2928 -32 2800 -32
WIRE 3056 -32 3056 -112
WIRE 3056 -32 2928 -32
WIRE 3200 32 3200 -320
WIRE 3424 32 3424 -624
WIRE 3424 32 3200 32
WIRE 3472 32 3424 32
WIRE 3616 32 3552 32
WIRE 3776 32 3696 32
WIRE 3936 32 3840 32
WIRE 1968 48 1968 -112
WIRE 2048 48 1968 48
WIRE 2096 48 2096 -128
WIRE 2096 48 2048 48
WIRE 2240 48 2144 48
WIRE 2400 48 2400 -112
WIRE 2400 48 2240 48
WIRE 2576 48 2576 -112
WIRE 2576 48 2480 48
WIRE 2704 48 2576 48
WIRE 1968 80 1888 80
WIRE 3936 80 3936 32
WIRE 1520 112 1520 -32
WIRE 1728 112 1728 -32
WIRE 1968 112 1968 80
WIRE 2240 112 2240 48
WIRE 2576 112 2576 48
WIRE 2800 112 2800 -32
WIRE 3200 112 3200 32
WIRE 3936 144 3936 80
WIRE 1568 160 1520 160
WIRE 1728 160 1680 160
WIRE 1968 160 1920 160
WIRE 2288 160 2240 160
WIRE 2624 160 2576 160
WIRE 2848 160 2800 160
WIRE 3312 160 3200 160
WIRE 1024 192 880 192
WIRE 1136 192 1088 192
WIRE 1328 192 1328 -624
WIRE 1328 192 1216 192
WIRE 1472 192 1328 192
WIRE 1824 192 1824 -528
WIRE 1824 192 1776 192
WIRE 2112 192 2016 192
WIRE 2144 192 2144 48
WIRE 2144 192 2112 192
WIRE 2192 192 2144 192
WIRE 2480 192 2480 48
WIRE 2528 192 2480 192
WIRE 2704 192 2704 48
WIRE 2752 192 2704 192
WIRE 3056 192 3056 -32
WIRE 3152 192 3056 192
WIRE 880 208 880 192
WIRE 832 224 656 224
WIRE 656 256 656 224
WIRE 832 272 768 272
WIRE 1520 272 1520 208
WIRE 1728 272 1728 208
WIRE 1728 272 1520 272
WIRE 1888 272 1888 80
WIRE 1888 272 1728 272
WIRE 1968 272 1968 208
WIRE 2048 272 2048 48
WIRE 2048 272 1968 272
WIRE 2112 272 2112 256
WIRE 2112 272 2048 272
WIRE 2240 272 2240 208
WIRE 2240 272 2112 272
WIRE 2576 272 2576 208
WIRE 2576 272 2240 272
WIRE 2800 272 2800 208
WIRE 2800 272 2576 272
WIRE 3200 272 3200 208
WIRE 3200 272 2800 272
WIRE 3360 272 3200 272
WIRE 3360 304 3360 272
WIRE 3936 304 3936 224
WIRE 3200 320 3200 272
WIRE 1568 416 1568 160
WIRE 1680 416 1680 160
WIRE 1680 416 1568 416
WIRE 1920 416 1920 160
WIRE 1920 416 1680 416
WIRE 2288 416 2288 160
WIRE 2288 416 1920 416
WIRE 2624 416 2624 160
WIRE 2624 416 2288 416
WIRE 2848 416 2848 160
WIRE 2848 416 2624 416
WIRE 3072 416 2848 416
WIRE 3360 416 3360 384
WIRE 3360 416 3072 416
WIRE 656 432 656 416
WIRE 720 432 656 432
WIRE 768 432 768 272
WIRE 768 432 720 432
WIRE 880 432 880 288
WIRE 880 432 768 432
WIRE 720 464 720 432
FLAG 720 464 0
FLAG 3200 320 0
FLAG 3344 -160 0
FLAG 3936 304 0
FLAG 3312 160 substrateGround
FLAG 3936 80 Out
FLAG 3072 416 substrateGround
FLAG 1728 -256 0
FLAG 1520 -256 0
DATAFLAG 1408 192 ""
DATAFLAG 1728 -32 ""
DATAFLAG 3280 32 ""
DATAFLAG 3936 32 ""
DATAFLAG 1520 -64 "Id(M1)"
DATAFLAG 1520 -32 ""
DATAFLAG 1728 -64 "Id(M2)"
DATAFLAG 1808 272 ""
DATAFLAG 3200 -240 "Id(M3)"
DATAFLAG 3056 192 ""
DATAFLAG 3072 -320 ""
DATAFLAG 2400 -256 "Id(M1)"
DATAFLAG 1808 304 "Id(M6)"
DATAFLAG 1968 -240 "Id(M5)"
DATAFLAG 2240 -240 "Id(M8)"
SYMBOL voltage 656 240 R0
WINDOW 3 -305 92 Left 2
WINDOW 123 -305 120 Left 2
WINDOW 39 0 0 Left 0
SYMATTR Value SINE(0 {V_in} 10meg 0 0 0)
SYMATTR Value2 AC 1 0
SYMATTR InstName V1
SYMBOL e 880 192 R0
SYMATTR InstName E1
SYMATTR Value {L_A}
SYMBOL cap 1088 176 R90
WINDOW 0 0 32 VBottom 2
WINDOW 3 32 32 VTop 2
SYMATTR InstName C1
SYMATTR Value {C_A}
SYMBOL res 1232 176 R90
WINDOW 0 0 56 VBottom 2
WINDOW 3 32 56 VTop 2
SYMATTR InstName R1
SYMATTR Value {Rphz}
SYMBOL voltage 1520 -432 R0
WINDOW 123 0 0 Left 0
WINDOW 39 0 0 Left 0
SYMATTR InstName V2
SYMATTR Value 595m
SYMBOL voltage 1728 -432 R0
WINDOW 123 0 0 Left 0
WINDOW 39 0 0 Left 0
SYMATTR InstName V3
SYMATTR Value 900m
SYMBOL nmos4 1472 112 R0
SYMATTR InstName M1
SYMATTR Value C18nmos
SYMATTR Value2 l={L_DP} w={W_DP}
SYMBOL nmos4 1776 112 M0
SYMATTR InstName M2
SYMATTR Value C18nmos
SYMATTR Value2 l={L_DP} w={W_DP}
SYMBOL nmos4 3152 112 R0
SYMATTR InstName M3
SYMATTR Value C18nmos
SYMATTR Value2 l={L_N} w={W_N}
SYMBOL pmos4 3152 -416 R0
SYMATTR InstName M4
SYMATTR Value C18pmos
SYMATTR Value2 l={L_P} w={W_P}
SYMBOL voltage 3344 -304 R0
WINDOW 123 0 0 Left 0
WINDOW 39 0 0 Left 0
SYMATTR InstName V6
SYMATTR Value 1.8
SYMBOL cap 2448 -640 R90
WINDOW 0 0 32 VBottom 2
WINDOW 3 32 32 VTop 2
SYMATTR InstName C2
SYMATTR Value {C_F}
SYMBOL res 2480 -784 R90
WINDOW 0 0 56 VBottom 2
WINDOW 3 32 56 VTop 2
SYMATTR InstName R2
SYMATTR Value 500Meg
SYMBOL res 3568 16 R90
WINDOW 0 0 56 VBottom 2
WINDOW 3 32 56 VTop 2
SYMATTR InstName R3
SYMATTR Value {R_L}
SYMBOL cap 3840 16 R90
WINDOW 0 0 32 VBottom 2
WINDOW 3 32 32 VTop 2
SYMATTR InstName C3
SYMATTR Value 10u
SYMBOL res 3920 128 R0
SYMATTR InstName R4
SYMATTR Value {R_L}
SYMBOL voltage 3360 288 R0
WINDOW 123 0 0 Left 0
WINDOW 39 0 0 Left 0
SYMATTR InstName V7
SYMATTR Value 20m
SYMBOL ind 3712 16 R90
WINDOW 0 5 56 VBottom 2
WINDOW 3 32 56 VTop 2
SYMATTR InstName L1
SYMATTR Value {Lphz}
SYMBOL voltage 656 320 R0
WINDOW 3 -305 92 Left 2
WINDOW 123 -305 120 Left 2
WINDOW 39 0 0 Left 0
SYMATTR Value SINE(0 {V_in} 12.5meg 0 0 0)
SYMATTR Value2 AC 0 0
SYMATTR InstName V8
SYMBOL nmos4 2528 112 R0
SYMATTR InstName M9
SYMATTR Value C18nmos
SYMATTR Value2 l={LN_vol} w={WN_vol} m=6
SYMBOL pmos4 2528 -416 R0
SYMATTR InstName M10
SYMATTR Value C18pmos
SYMATTR Value2 l={LP_vol} w={WP_vol} m=6
SYMBOL res 2560 -208 R0
SYMATTR InstName R8
SYMATTR Value {R_vol}
SYMBOL cap 3040 -176 R0
SYMATTR InstName C4
SYMATTR Value 5p
SYMBOL nmos4 2752 112 R0
SYMATTR InstName M11
SYMATTR Value C18nmos
SYMATTR Value2 l={LN_vol} w={WN_vol} m=5
SYMBOL pmos4 2752 -416 R0
SYMATTR InstName M12
SYMATTR Value C18pmos
SYMATTR Value2 l={LP_vol} w={WP_vol} m=5
SYMBOL res 2912 -208 R0
SYMATTR InstName R5
SYMATTR Value {R_vol}
SYMBOL nmos4 2192 112 R0
SYMATTR InstName M5
SYMATTR Value C18nmos
SYMATTR Value2 l={L1_cur1} w={W1_cur1} m={M1_cur1}
SYMBOL res 2384 -208 R0
SYMATTR InstName R7
SYMATTR Value {R_cur1}
SYMBOL nmos4 2016 112 M0
SYMATTR InstName M6
SYMATTR Value C18nmos
SYMATTR Value2 l={L2_cur1} w={W2_cur1} m={M2_cur1}
SYMBOL res 1952 -208 R0
SYMATTR InstName R10
SYMATTR Value {R_cur2}
SYMBOL pmos4 2016 -416 M0
SYMATTR InstName M7
SYMATTR Value C18pmos
SYMATTR Value2 l={L1_cur2} w={W1_cur2} m={M1_cur2}
SYMBOL pmos4 2192 -416 R0
SYMATTR InstName M8
SYMATTR Value C18pmos
SYMATTR Value2 l={L2_cur2} w={W2_cur2} m={M2_cur2}
SYMBOL cap 2096 192 R0
SYMATTR InstName C5
SYMATTR Value 100n
SYMBOL cap 2080 -192 R0
SYMATTR InstName C6
SYMATTR Value 100n
TEXT 288 -408 Left 2 !.param L_A=0.5 C_A=10e-12 C_F=5e-12 R_L=50
TEXT 288 -384 Left 2 !.param Rphz=13.81 Lphz=0.4u
TEXT 288 -360 Left 2 !.param L_DP=250n W_DP=800u ID_DP=3m
TEXT 288 -336 Left 2 !.param L_N=180n L_P=180n W_N=100u W_P=350u
TEXT 280 -168 Left 2 !.op
TEXT 280 -16 Left 2 !.lib 'E:\\Universiteit\\Master\\7 Q2 - 2021\\EE4109-Structured-Electronic-Design\\cir\\CMOS18TT.lib'
TEXT 280 -40 Left 2 !.lib 'C:\\Program Files\\LTC\\LTspiceXVII\\lib\\cmp\\log018.l' TT
TEXT 288 -432 Left 2 !.param V_in=0.16
TEXT 280 -152 Left 2 !.tran 0 1600n 0 1n
TEXT 280 -136 Left 2 !;ac dec 20 1k 10G
TEXT 280 -120 Left 2 !;noise V(out) V1 dec 20 10k 30Meg
TEXT 280 -256 Left 2 !.param LN_vol=180n LP_vol=180n WN_vol=10u WP_vol=35u R_vol=3k
TEXT 280 -232 Left 2 !.param L1_cur1=1u W1_cur1=350u L2_cur1=1u W2_cur1=347u M1_cur1=2 M2_cur1=12 R_cur1=1020
TEXT 280 -208 Left 2 !.param L1_cur2=1u W1_cur2=40u L2_cur2=1u W2_cur2=52u M1_cur2=1 M2_cur2=2 R_cur2=100
